Version 4
SHEET 1 1744 1360
WIRE 112 288 16 288
WIRE 272 288 192 288
WIRE 384 288 272 288
WIRE -240 336 -240 304
WIRE -368 400 -368 304
WIRE 16 400 16 288
WIRE -496 416 -496 304
WIRE 272 416 272 288
WIRE -240 448 -240 416
WIRE -176 448 -240 448
WIRE -240 480 -240 448
WIRE -496 592 -496 480
WIRE -368 592 -368 480
WIRE -240 592 -240 560
WIRE 16 592 16 480
WIRE 272 592 272 480
WIRE 208 800 208 752
WIRE 208 800 112 800
WIRE 208 848 208 800
WIRE 112 912 112 800
WIRE 400 928 304 928
WIRE 112 960 48 960
WIRE 400 992 304 992
WIRE 112 1008 48 1008
WIRE -592 1056 -592 1008
WIRE -624 1072 -672 1072
WIRE -672 1088 -672 1072
WIRE -416 1088 -560 1088
WIRE -400 1088 -416 1088
WIRE -624 1104 -656 1104
WIRE 48 1120 48 1008
WIRE 208 1120 208 1072
WIRE -592 1152 -592 1120
WIRE -784 1184 -816 1184
WIRE -656 1184 -656 1104
WIRE -656 1184 -704 1184
WIRE -544 1184 -656 1184
WIRE -416 1184 -416 1088
WIRE -416 1184 -464 1184
FLAG 16 592 0
FLAG 272 592 0
FLAG -368 304 vcc
FLAG -368 592 0
FLAG 384 288 one
IOPIN 384 288 Out
FLAG 208 752 vcc
FLAG 48 1120 0
FLAG 400 928 three
IOPIN 400 928 Out
FLAG 208 1120 vcc
FLAG 400 992 !three
IOPIN 400 992 Out
FLAG 48 960 two
IOPIN 48 960 In
FLAG -240 592 0
FLAG -240 304 vcc
FLAG -176 448 v_ref
IOPIN -176 448 Out
FLAG -496 592 0
FLAG -496 304 vcc
FLAG -752 496 0
FLAG -752 416 -vcc
FLAG -672 1088 0
FLAG -592 1152 0
FLAG -816 1184 one
IOPIN -816 1184 In
FLAG -400 1088 two
IOPIN -400 1088 Out
FLAG -592 1008 vcc
SYMBOL Voltage 16 384 R0
WINDOW 3 79 150 Invisible 0
SYMATTR Value PWL file=/Users/axeljacobsen/Documents/candle/spice/waveforms/pwl_guess.txt
SYMATTR InstName V1
SYMBOL Res 208 272 R90
WINDOW 0 0 56 VBottom 2
WINDOW 3 32 56 VTop 2
SYMATTR InstName R2
SYMATTR Value 1000
SYMBOL cap 256 416 R0
SYMATTR InstName C1
SYMATTR Value 0.001
SYMBOL ZZZ/LOGIC/74HC/74hc109 208 848 R0
SYMATTR InstName U1
SYMBOL voltage -368 384 R0
SYMATTR InstName Vcc
SYMATTR Value 5
SYMBOL Res -256 320 R0
SYMATTR InstName R3
SYMATTR Value 5Meg
SYMBOL Res -256 464 R0
SYMATTR InstName R4
SYMATTR Value 110K
SYMBOL Cap -512 416 R0
SYMATTR InstName C3
SYMATTR Value 0.1µF
SYMBOL voltage -752 400 R0
SYMATTR InstName V2
SYMATTR Value -5
SYMBOL ZZZ/Comparator/lm393 -592 1088 R0
SYMATTR InstName U2
SYMBOL Res -448 1168 R90
WINDOW 0 0 56 VBottom 2
WINDOW 3 32 56 VTop 2
SYMATTR InstName R5
SYMATTR Value 1Meg
SYMBOL Res -688 1168 R90
WINDOW 0 0 56 VBottom 2
WINDOW 3 32 56 VTop 2
SYMATTR InstName R1
SYMATTR Value 100K
TEXT -544 144 Left 2 !.TRAN 10
TEXT -544 224 Left 2 ;Voltage / sources
TEXT -40 224 Left 2 ;Input and filtering
TEXT -32 688 Left 2 ;Flip Flop
TEXT -544 24 Left 2 ;TODOs\n- figure out lightbulb & it's requirements\n- add circuit components for it
TEXT -736 824 Left 2 ;Schmitt Trigger (TLV2461)
RECTANGLE Normal -548 244 -76 640 2
RECTANGLE Normal -36 704 500 1200 2
RECTANGLE Normal -36 244 500 632 2
