Version 4
SHEET 1 1744 1552
WIRE -128 336 -160 336
WIRE -16 336 -48 336
WIRE 32 336 -16 336
WIRE -368 416 -368 320
WIRE -160 416 -160 336
WIRE -496 432 -496 320
WIRE -16 432 -16 336
WIRE -160 560 -160 496
WIRE -16 560 -16 496
WIRE -496 608 -496 496
WIRE -368 608 -368 496
WIRE 208 784 208 736
WIRE 208 784 112 784
WIRE -496 832 -496 800
WIRE -224 832 -224 800
WIRE 208 832 208 784
WIRE 112 896 112 784
WIRE 320 912 304 912
WIRE -320 928 -352 928
WIRE -224 944 -224 912
WIRE -224 944 -256 944
WIRE -160 944 -224 944
WIRE 112 944 80 944
WIRE -496 960 -496 912
WIRE -336 960 -496 960
WIRE -320 960 -336 960
WIRE 320 976 304 976
WIRE -496 1008 -496 960
WIRE -336 1088 -336 960
WIRE -320 1088 -336 1088
WIRE -224 1088 -224 944
WIRE -224 1088 -240 1088
WIRE 112 1104 112 992
WIRE 208 1104 208 1056
WIRE -496 1152 -496 1088
FLAG -160 560 0
FLAG -16 560 0
FLAG -368 320 vcc
FLAG -368 608 0
FLAG 32 336 one
IOPIN 32 336 Out
FLAG 208 736 vcc
FLAG 112 1104 0
FLAG 320 912 three
IOPIN 320 912 Out
FLAG 208 1104 vcc
FLAG 320 976 !three
IOPIN 320 976 Out
FLAG 80 944 two
IOPIN 80 944 In
FLAG -496 608 0
FLAG -496 320 vcc
FLAG -288 976 0
FLAG -288 912 vcc
FLAG -352 928 one
IOPIN -352 928 In
FLAG -496 1152 0
FLAG -496 800 vcc
FLAG -224 800 vcc
FLAG -160 944 two
IOPIN -160 944 Out
SYMBOL Voltage -160 400 R0
WINDOW 3 79 150 Invisible 0
SYMATTR Value PWL file=/Users/axeljacobsen/Documents/candle/spice/waveforms/pwl_guess.txt
SYMATTR InstName V1
SYMBOL Res -32 320 R90
WINDOW 0 0 56 VBottom 2
WINDOW 3 32 56 VTop 2
SYMATTR InstName R2
SYMATTR Value 10K
SYMBOL cap -32 432 R0
SYMATTR InstName C1
SYMATTR Value 1µF
SYMBOL ZZZ/LOGIC/74HC/74hc109 208 832 R0
SYMATTR InstName U1
SYMBOL voltage -368 400 R0
SYMATTR InstName Vcc
SYMATTR Value 5
SYMBOL Cap -512 432 R0
SYMATTR InstName C3
SYMATTR Value 0.1µF
SYMBOL ZZZ/Comparator/lm393 -288 944 R0
SYMATTR InstName U2
SYMBOL Res -512 816 R0
SYMATTR InstName R1
SYMATTR Value 4Meg
SYMBOL Res -512 992 R0
SYMATTR InstName R3
SYMATTR Value 100K
SYMBOL Res -240 816 R0
SYMATTR InstName R4
SYMATTR Value 768K
SYMBOL Res -224 1072 R90
WINDOW 0 0 56 VBottom 2
WINDOW 3 32 56 VTop 2
SYMATTR InstName R5
SYMATTR Value 768K
TEXT -544 144 Left 2 !.TRAN 10
TEXT -544 224 Left 2 ;Voltage / sources
TEXT -224 224 Left 2 ;Input and filtering
TEXT -32 672 Left 2 ;Flip Flop
TEXT -544 24 Left 2 ;TODOs\n- figure out lightbulb & it's requirements\n- add circuit components for it
TEXT -544 672 Left 2 ;Schmitt Trigger (with LM393 comparator)
RECTANGLE Normal -548 244 -252 644 2
RECTANGLE Normal -36 688 432 1188 2
RECTANGLE Normal -220 244 104 640 2
RECTANGLE Normal -544 700 -64 1188 2
